<?xml version="1.0" encoding="UTF-8"?>

<!-- generated on 2025-03-20 11:03:32 by Eclipse SUMO netedit Version 1.22.0
<neteditConfiguration xmlns:xsi="http://www.w3.org/2001/XMLSchema-instance" xsi:noNamespaceSchemaLocation="http://sumo.dlr.de/xsd/neteditConfiguration.xsd">

    <input>
        <sumo-net-file value="C:\Users\lophi\Dev\TestSumo\t.net.xml"/>
    </input>

    <output>
        <output-file value="C:\Users\lophi\Dev\TestSumo\t.net.xml"/>
    </output>

    <processing>
        <offset.disable-normalization value="true"/>
    </processing>

    <junctions>
        <no-turnarounds value="true"/>
    </junctions>

    <netedit>
        <new-network value="false"/>
    </netedit>

</neteditConfiguration>
-->

<net version="1.20" junctionCornerDetail="5" limitTurnSpeed="5.50" xmlns:xsi="http://www.w3.org/2001/XMLSchema-instance" xsi:noNamespaceSchemaLocation="http://sumo.dlr.de/xsd/net_file.xsd">

    <location netOffset="0.00,0.00" convBoundary="-45.60,-27.31,39.91,21.24" origBoundary="10000000000.00,10000000000.00,-10000000000.00,-10000000000.00" projParameter="!"/>

    <edge id=":J11_0" function="internal">
        <lane id=":J11_0_0" index="0" speed="6.71" length="9.38" shape="21.53,-1.38 19.00,-0.98 17.17,0.12 16.04,1.92 15.61,4.44"/>
    </edge>
    <edge id=":J11_1" function="internal">
        <lane id=":J11_1_0" index="0" speed="13.89" length="14.60" shape="21.53,-1.38 6.92,-1.30"/>
    </edge>
    <edge id=":J11_2" function="internal">
        <lane id=":J11_2_0" index="0" speed="7.94" length="4.17" shape="21.53,-1.38 17.62,-1.88 17.43,-2.00"/>
    </edge>
    <edge id=":J11_12" function="internal">
        <lane id=":J11_12_0" index="0" speed="7.94" length="10.15" shape="17.43,-2.00 14.85,-3.52 13.22,-6.29 12.73,-10.20"/>
    </edge>
    <edge id=":J11_3" function="internal">
        <lane id=":J11_3_0" index="0" speed="6.44" length="9.03" shape="15.93,-10.15 16.24,-7.68 17.27,-5.93 19.01,-4.90 21.48,-4.58"/>
    </edge>
    <edge id=":J11_4" function="internal">
        <lane id=":J11_4_0" index="0" speed="13.89" length="14.59" shape="15.93,-10.15 15.61,4.44"/>
    </edge>
    <edge id=":J11_5" function="internal">
        <lane id=":J11_5_0" index="0" speed="8.08" length="4.14" shape="15.93,-10.15 15.31,-6.26 15.20,-6.09"/>
    </edge>
    <edge id=":J11_13" function="internal">
        <lane id=":J11_13_0" index="0" speed="8.08" length="10.21" shape="15.20,-6.09 13.60,-3.49 10.81,-1.84 6.92,-1.30"/>
    </edge>
    <edge id=":J11_6" function="internal">
        <lane id=":J11_6_0" index="0" speed="6.60" length="9.24" shape="6.94,-4.50 9.43,-4.85 11.23,-5.91 12.33,-7.70 12.73,-10.20"/>
    </edge>
    <edge id=":J11_7" function="internal">
        <lane id=":J11_7_0" index="0" speed="13.89" length="14.54" shape="6.94,-4.50 21.48,-4.58"/>
    </edge>
    <edge id=":J11_8" function="internal">
        <lane id=":J11_8_0" index="0" speed="7.96" length="3.92" shape="6.94,-4.50 10.82,-3.93"/>
    </edge>
    <edge id=":J11_14" function="internal">
        <lane id=":J11_14_0" index="0" speed="7.96" length="10.35" shape="10.82,-3.93 13.56,-2.25 15.16,0.54 15.61,4.44"/>
    </edge>
    <edge id=":J11_9" function="internal">
        <lane id=":J11_9_0" index="0" speed="6.46" length="9.03" shape="12.41,4.35 12.13,1.89 11.11,0.12 9.38,-0.94 6.92,-1.30"/>
    </edge>
    <edge id=":J11_10" function="internal">
        <lane id=":J11_10_0" index="0" speed="13.89" length="14.56" shape="12.41,4.35 12.73,-10.20"/>
    </edge>
    <edge id=":J11_11" function="internal">
        <lane id=":J11_11_0" index="0" speed="8.17" length="4.06" shape="12.41,4.35 13.07,0.50 13.14,0.37"/>
    </edge>
    <edge id=":J11_15" function="internal">
        <lane id=":J11_15_0" index="0" speed="8.17" length="10.33" shape="13.14,0.37 14.79,-2.28 17.60,-3.97 21.48,-4.58"/>
    </edge>
    <edge id=":J4_0" function="internal">
        <lane id=":J4_0_0" index="0" speed="6.61" length="9.23" shape="-7.27,-1.37 -9.73,-1.02 -11.50,0.06 -12.59,1.87 -12.99,4.40"/>
    </edge>
    <edge id=":J4_1" function="internal">
        <lane id=":J4_1_0" index="0" speed="13.89" length="14.50" shape="-7.27,-1.37 -21.76,-1.16"/>
    </edge>
    <edge id=":J4_2" function="internal">
        <lane id=":J4_2_0" index="0" speed="8.01" length="3.88" shape="-7.27,-1.37 -11.11,-1.93"/>
    </edge>
    <edge id=":J4_12" function="internal">
        <lane id=":J4_12_0" index="0" speed="8.01" length="10.30" shape="-11.11,-1.93 -13.85,-3.59 -15.50,-6.35 -16.04,-10.19"/>
    </edge>
    <edge id=":J4_3" function="internal">
        <lane id=":J4_3_0" index="0" speed="6.51" length="9.03" shape="-12.84,-10.19 -12.49,-7.74 -11.45,-5.99 -9.70,-4.93 -7.25,-4.57"/>
    </edge>
    <edge id=":J4_4" function="internal">
        <lane id=":J4_4_0" index="0" speed="13.89" length="14.59" shape="-12.84,-10.19 -12.99,4.40"/>
    </edge>
    <edge id=":J4_5" function="internal">
        <lane id=":J4_5_0" index="0" speed="8.15" length="4.11" shape="-12.84,-10.19 -13.40,-6.35 -13.52,-6.15"/>
    </edge>
    <edge id=":J4_13" function="internal">
        <lane id=":J4_13_0" index="0" speed="8.15" length="10.25" shape="-13.52,-6.15 -15.08,-3.56 -17.86,-1.83 -21.76,-1.16"/>
    </edge>
    <edge id=":J4_6" function="internal">
        <lane id=":J4_6_0" index="0" speed="6.68" length="9.34" shape="-21.87,-4.36 -19.32,-4.79 -17.50,-5.91 -16.41,-7.71 -16.04,-10.19"/>
    </edge>
    <edge id=":J4_7" function="internal">
        <lane id=":J4_7_0" index="0" speed="13.89" length="14.62" shape="-21.87,-4.36 -7.25,-4.57"/>
    </edge>
    <edge id=":J4_8" function="internal">
        <lane id=":J4_8_0" index="0" speed="7.91" length="4.25" shape="-21.87,-4.36 -17.92,-3.92 -17.68,-3.78"/>
    </edge>
    <edge id=":J4_14" function="internal">
        <lane id=":J4_14_0" index="0" speed="7.91" length="10.14" shape="-17.68,-3.78 -15.12,-2.32 -13.48,0.46 -12.99,4.40"/>
    </edge>
    <edge id=":J4_9" function="internal">
        <lane id=":J4_9_0" index="0" speed="6.40" length="9.04" shape="-16.19,4.34 -16.50,1.86 -17.53,0.12 -19.28,-0.88 -21.76,-1.16"/>
    </edge>
    <edge id=":J4_10" function="internal">
        <lane id=":J4_10_0" index="0" speed="13.89" length="14.53" shape="-16.19,4.34 -16.04,-10.19"/>
    </edge>
    <edge id=":J4_11" function="internal">
        <lane id=":J4_11_0" index="0" speed="8.08" length="4.08" shape="-16.19,4.34 -15.57,0.43 -15.50,0.32"/>
    </edge>
    <edge id=":J4_15" function="internal">
        <lane id=":J4_15_0" index="0" speed="8.08" length="10.26" shape="-15.50,0.32 -13.87,-2.36 -11.10,-4.03 -7.25,-4.57"/>
    </edge>

    <edge id="-E0" from="J1" to="J11" priority="-1">
        <lane id="-E0_0" index="0" speed="13.89" length="18.41" shape="39.93,-1.66 21.53,-1.38"/>
    </edge>
    <edge id="-E0.17" from="J11" to="J4" priority="-1">
        <lane id="-E0.17_0" index="0" speed="13.89" length="14.19" shape="6.92,-1.30 -7.27,-1.37"/>
    </edge>
    <edge id="-E0.42" from="J4" to="J0" priority="-1">
        <lane id="-E0.42_0" index="0" speed="13.89" length="23.80" shape="-21.76,-1.16 -45.55,-0.37"/>
    </edge>
    <edge id="-E1" from="J3" to="J4" priority="-1">
        <lane id="-E1_0" index="0" speed="13.89" length="17.12" shape="-12.82,-27.31 -12.84,-10.19"/>
    </edge>
    <edge id="-E1.30" from="J4" to="J2" priority="-1">
        <lane id="-E1.30_0" index="0" speed="13.89" length="14.83" shape="-12.99,4.40 -13.27,19.23"/>
    </edge>
    <edge id="-E3" from="J9" to="J11" priority="-1">
        <lane id="-E3_0" index="0" speed="13.89" length="14.03" shape="16.17,-24.18 15.93,-10.15"/>
    </edge>
    <edge id="-E3.31" from="J11" to="J8" priority="-1">
        <lane id="-E3.31_0" index="0" speed="13.89" length="16.85" shape="15.61,4.44 15.18,21.29"/>
    </edge>
    <edge id="E0" from="J0" to="J4" priority="-1">
        <lane id="E0_0" index="0" speed="13.89" length="23.80" shape="-45.65,-3.57 -21.87,-4.36"/>
    </edge>
    <edge id="E0.37" from="J4" to="J11" priority="-1">
        <lane id="E0.37_0" index="0" speed="13.89" length="14.19" shape="-7.25,-4.57 6.94,-4.50"/>
    </edge>
    <edge id="E0.58" from="J11" to="J1" priority="-1">
        <lane id="E0.58_0" index="0" speed="13.89" length="18.41" shape="21.48,-4.58 39.89,-4.86"/>
    </edge>
    <edge id="E1" from="J2" to="J4" priority="-1">
        <lane id="E1_0" index="0" speed="13.89" length="14.83" shape="-16.47,19.17 -16.19,4.34"/>
    </edge>
    <edge id="E1.28" from="J4" to="J3" priority="-1">
        <lane id="E1.28_0" index="0" speed="13.89" length="17.12" shape="-16.04,-10.19 -16.02,-27.32"/>
    </edge>
    <edge id="E3" from="J8" to="J11" priority="-1">
        <lane id="E3_0" index="0" speed="13.89" length="16.85" shape="11.98,21.20 12.41,4.35"/>
    </edge>
    <edge id="E3.32" from="J11" to="J9" priority="-1">
        <lane id="E3.32_0" index="0" speed="13.89" length="14.03" shape="12.73,-10.20 12.97,-24.23"/>
    </edge>

    <tlLogic id="J11" type="static" programID="0" offset="0">
        <phase duration="42" state="rrrGGgrrrGGg"/>
        <phase duration="3"  state="rrryyyrrryyy"/>
        <phase duration="42" state="GGgrrrGGgrrr"/>
        <phase duration="3"  state="yyyrrryyyrrr"/>
    </tlLogic>
    <tlLogic id="J4" type="static" programID="0" offset="0">
        <phase duration="42" state="rrrGGgrrrGGg"/>
        <phase duration="3"  state="rrryyyrrryyy"/>
        <phase duration="42" state="GGgrrrGGgrrr"/>
        <phase duration="3"  state="yyyrrryyyrrr"/>
    </tlLogic>

    <junction id="J0" type="dead_end" x="-45.60" y="-1.97" incLanes="-E0.42_0" intLanes="" shape="-45.60,-1.97 -45.49,1.23 -45.60,-1.97"/>
    <junction id="J1" type="dead_end" x="39.91" y="-3.26" incLanes="E0.58_0" intLanes="" shape="39.91,-3.26 39.86,-6.46 39.91,-3.26"/>
    <junction id="J11" type="traffic_light" x="14.20" y="-2.87" incLanes="-E0_0 -E3_0 E0.37_0 E3_0" intLanes=":J11_0_0 :J11_1_0 :J11_12_0 :J11_3_0 :J11_4_0 :J11_13_0 :J11_6_0 :J11_7_0 :J11_14_0 :J11_9_0 :J11_10_0 :J11_15_0" shape="21.55,0.22 21.46,-6.18 19.24,-6.59 18.47,-7.13 17.93,-7.90 17.62,-8.90 17.53,-10.12 11.13,-10.23 10.63,-7.93 10.05,-7.13 9.24,-6.55 8.20,-6.21 6.95,-6.10 6.92,0.30 9.13,0.75 9.89,1.31 10.43,2.09 10.73,3.09 10.81,4.31 17.21,4.48 17.74,2.14 18.35,1.32 19.19,0.72 20.26,0.35">
        <request index="0"  response="000000010000" foes="000100010000" cont="0"/>
        <request index="1"  response="111000110000" foes="111100110000" cont="0"/>
        <request index="2"  response="110111110000" foes="110111110000" cont="1"/>
        <request index="3"  response="000000000000" foes="100010000000" cont="0"/>
        <request index="4"  response="000100000100" foes="100110000111" cont="0"/>
        <request index="5"  response="111100000100" foes="111110000110" cont="1"/>
        <request index="6"  response="010000000000" foes="010000000100" cont="0"/>
        <request index="7"  response="110000111000" foes="110000111100" cont="0"/>
        <request index="8"  response="110000110011" foes="110000110111" cont="1"/>
        <request index="9"  response="000000000000" foes="000000100010" cont="0"/>
        <request index="10" response="000100000100" foes="000111100110" cont="0"/>
        <request index="11" response="000100011100" foes="000110111110" cont="1"/>
    </junction>
    <junction id="J2" type="dead_end" x="-14.87" y="19.20" incLanes="-E1.30_0" intLanes="" shape="-14.87,19.20 -11.67,19.26 -14.87,19.20"/>
    <junction id="J3" type="dead_end" x="-14.42" y="-27.31" incLanes="E1.28_0" intLanes="" shape="-14.42,-27.31 -17.62,-27.32 -14.42,-27.31"/>
    <junction id="J4" type="traffic_light" x="-14.45" y="-3.00" incLanes="-E0.17_0 -E1_0 E0_0 E1_0" intLanes=":J4_0_0 :J4_1_0 :J4_12_0 :J4_3_0 :J4_4_0 :J4_13_0 :J4_6_0 :J4_7_0 :J4_14_0 :J4_9_0 :J4_10_0 :J4_15_0" shape="-7.27,0.23 -7.25,-6.17 -9.47,-6.62 -10.24,-7.18 -10.80,-7.96 -11.13,-8.96 -11.24,-10.19 -17.64,-10.19 -18.12,-7.90 -18.71,-7.09 -19.55,-6.49 -20.62,-6.11 -21.92,-5.96 -21.71,0.44 -19.50,0.81 -18.73,1.34 -18.19,2.10 -17.88,3.09 -17.79,4.31 -11.39,4.43 -10.90,2.09 -10.32,1.27 -9.53,0.69 -8.51,0.34">
        <request index="0"  response="000000010000" foes="000100010000" cont="0"/>
        <request index="1"  response="111000110000" foes="111100110000" cont="0"/>
        <request index="2"  response="110111110000" foes="110111110000" cont="1"/>
        <request index="3"  response="000000000000" foes="100010000000" cont="0"/>
        <request index="4"  response="000100000100" foes="100110000111" cont="0"/>
        <request index="5"  response="111100000100" foes="111110000110" cont="1"/>
        <request index="6"  response="010000000000" foes="010000000100" cont="0"/>
        <request index="7"  response="110000111000" foes="110000111100" cont="0"/>
        <request index="8"  response="110000110011" foes="110000110111" cont="1"/>
        <request index="9"  response="000000000000" foes="000000100010" cont="0"/>
        <request index="10" response="000100000100" foes="000111100110" cont="0"/>
        <request index="11" response="000100011100" foes="000110111110" cont="1"/>
    </junction>
    <junction id="J8" type="dead_end" x="13.58" y="21.24" incLanes="-E3.31_0" intLanes="" shape="13.58,21.24 16.78,21.33 13.58,21.24"/>
    <junction id="J9" type="dead_end" x="14.57" y="-24.20" incLanes="E3.32_0" intLanes="" shape="14.57,-24.20 11.37,-24.26 14.57,-24.20"/>

    <junction id=":J11_12_0" type="internal" x="17.43" y="-2.00" incLanes=":J11_2_0 E0.37_0" intLanes=":J11_4_0 :J11_5_0 :J11_6_0 :J11_7_0 :J11_10_0 :J11_11_0"/>
    <junction id=":J11_13_0" type="internal" x="15.20" y="-6.09" incLanes=":J11_5_0 E3_0" intLanes=":J11_1_0 :J11_2_0 :J11_7_0 :J11_8_0 :J11_9_0 :J11_10_0"/>
    <junction id=":J11_14_0" type="internal" x="10.82" y="-3.93" incLanes=":J11_8_0 -E0_0" intLanes=":J11_0_0 :J11_1_0 :J11_4_0 :J11_5_0 :J11_10_0 :J11_11_0"/>
    <junction id=":J11_15_0" type="internal" x="13.14" y="0.37" incLanes=":J11_11_0 -E3_0" intLanes=":J11_1_0 :J11_2_0 :J11_3_0 :J11_4_0 :J11_7_0 :J11_8_0"/>
    <junction id=":J4_12_0" type="internal" x="-11.11" y="-1.93" incLanes=":J4_2_0 E0_0" intLanes=":J4_4_0 :J4_5_0 :J4_6_0 :J4_7_0 :J4_10_0 :J4_11_0"/>
    <junction id=":J4_13_0" type="internal" x="-13.52" y="-6.15" incLanes=":J4_5_0 E1_0" intLanes=":J4_1_0 :J4_2_0 :J4_7_0 :J4_8_0 :J4_9_0 :J4_10_0"/>
    <junction id=":J4_14_0" type="internal" x="-17.68" y="-3.78" incLanes=":J4_8_0 -E0.17_0" intLanes=":J4_0_0 :J4_1_0 :J4_4_0 :J4_5_0 :J4_10_0 :J4_11_0"/>
    <junction id=":J4_15_0" type="internal" x="-15.50" y="0.32" incLanes=":J4_11_0 -E1_0" intLanes=":J4_1_0 :J4_2_0 :J4_3_0 :J4_4_0 :J4_7_0 :J4_8_0"/>

    <connection from="-E0" to="-E3.31" fromLane="0" toLane="0" via=":J11_0_0" tl="J11" linkIndex="0" dir="r" state="o"/>
    <connection from="-E0" to="-E0.17" fromLane="0" toLane="0" via=":J11_1_0" tl="J11" linkIndex="1" dir="s" state="o"/>
    <connection from="-E0" to="E3.32" fromLane="0" toLane="0" via=":J11_2_0" tl="J11" linkIndex="2" dir="l" state="o"/>
    <connection from="-E0.17" to="-E1.30" fromLane="0" toLane="0" via=":J4_0_0" tl="J4" linkIndex="0" dir="r" state="o"/>
    <connection from="-E0.17" to="-E0.42" fromLane="0" toLane="0" via=":J4_1_0" tl="J4" linkIndex="1" dir="s" state="o"/>
    <connection from="-E0.17" to="E1.28" fromLane="0" toLane="0" via=":J4_2_0" tl="J4" linkIndex="2" dir="l" state="o"/>
    <connection from="-E1" to="E0.37" fromLane="0" toLane="0" via=":J4_3_0" tl="J4" linkIndex="3" dir="r" state="O"/>
    <connection from="-E1" to="-E1.30" fromLane="0" toLane="0" via=":J4_4_0" tl="J4" linkIndex="4" dir="s" state="O"/>
    <connection from="-E1" to="-E0.42" fromLane="0" toLane="0" via=":J4_5_0" tl="J4" linkIndex="5" dir="l" state="o"/>
    <connection from="-E3" to="E0.58" fromLane="0" toLane="0" via=":J11_3_0" tl="J11" linkIndex="3" dir="r" state="O"/>
    <connection from="-E3" to="-E3.31" fromLane="0" toLane="0" via=":J11_4_0" tl="J11" linkIndex="4" dir="s" state="O"/>
    <connection from="-E3" to="-E0.17" fromLane="0" toLane="0" via=":J11_5_0" tl="J11" linkIndex="5" dir="l" state="o"/>
    <connection from="E0" to="E1.28" fromLane="0" toLane="0" via=":J4_6_0" tl="J4" linkIndex="6" dir="r" state="o"/>
    <connection from="E0" to="E0.37" fromLane="0" toLane="0" via=":J4_7_0" tl="J4" linkIndex="7" dir="s" state="o"/>
    <connection from="E0" to="-E1.30" fromLane="0" toLane="0" via=":J4_8_0" tl="J4" linkIndex="8" dir="l" state="o"/>
    <connection from="E0.37" to="E3.32" fromLane="0" toLane="0" via=":J11_6_0" tl="J11" linkIndex="6" dir="r" state="o"/>
    <connection from="E0.37" to="E0.58" fromLane="0" toLane="0" via=":J11_7_0" tl="J11" linkIndex="7" dir="s" state="o"/>
    <connection from="E0.37" to="-E3.31" fromLane="0" toLane="0" via=":J11_8_0" tl="J11" linkIndex="8" dir="l" state="o"/>
    <connection from="E1" to="-E0.42" fromLane="0" toLane="0" via=":J4_9_0" tl="J4" linkIndex="9" dir="r" state="O"/>
    <connection from="E1" to="E1.28" fromLane="0" toLane="0" via=":J4_10_0" tl="J4" linkIndex="10" dir="s" state="O"/>
    <connection from="E1" to="E0.37" fromLane="0" toLane="0" via=":J4_11_0" tl="J4" linkIndex="11" dir="l" state="o"/>
    <connection from="E3" to="-E0.17" fromLane="0" toLane="0" via=":J11_9_0" tl="J11" linkIndex="9" dir="r" state="O"/>
    <connection from="E3" to="E3.32" fromLane="0" toLane="0" via=":J11_10_0" tl="J11" linkIndex="10" dir="s" state="O"/>
    <connection from="E3" to="E0.58" fromLane="0" toLane="0" via=":J11_11_0" tl="J11" linkIndex="11" dir="l" state="o"/>

    <connection from=":J11_0" to="-E3.31" fromLane="0" toLane="0" dir="r" state="M"/>
    <connection from=":J11_1" to="-E0.17" fromLane="0" toLane="0" dir="s" state="M"/>
    <connection from=":J11_2" to="E3.32" fromLane="0" toLane="0" via=":J11_12_0" dir="l" state="m"/>
    <connection from=":J11_12" to="E3.32" fromLane="0" toLane="0" dir="l" state="M"/>
    <connection from=":J11_3" to="E0.58" fromLane="0" toLane="0" dir="r" state="M"/>
    <connection from=":J11_4" to="-E3.31" fromLane="0" toLane="0" dir="s" state="M"/>
    <connection from=":J11_5" to="-E0.17" fromLane="0" toLane="0" via=":J11_13_0" dir="l" state="m"/>
    <connection from=":J11_13" to="-E0.17" fromLane="0" toLane="0" dir="l" state="M"/>
    <connection from=":J11_6" to="E3.32" fromLane="0" toLane="0" dir="r" state="M"/>
    <connection from=":J11_7" to="E0.58" fromLane="0" toLane="0" dir="s" state="M"/>
    <connection from=":J11_8" to="-E3.31" fromLane="0" toLane="0" via=":J11_14_0" dir="l" state="m"/>
    <connection from=":J11_14" to="-E3.31" fromLane="0" toLane="0" dir="l" state="M"/>
    <connection from=":J11_9" to="-E0.17" fromLane="0" toLane="0" dir="r" state="M"/>
    <connection from=":J11_10" to="E3.32" fromLane="0" toLane="0" dir="s" state="M"/>
    <connection from=":J11_11" to="E0.58" fromLane="0" toLane="0" via=":J11_15_0" dir="l" state="m"/>
    <connection from=":J11_15" to="E0.58" fromLane="0" toLane="0" dir="l" state="M"/>
    <connection from=":J4_0" to="-E1.30" fromLane="0" toLane="0" dir="r" state="M"/>
    <connection from=":J4_1" to="-E0.42" fromLane="0" toLane="0" dir="s" state="M"/>
    <connection from=":J4_2" to="E1.28" fromLane="0" toLane="0" via=":J4_12_0" dir="l" state="m"/>
    <connection from=":J4_12" to="E1.28" fromLane="0" toLane="0" dir="l" state="M"/>
    <connection from=":J4_3" to="E0.37" fromLane="0" toLane="0" dir="r" state="M"/>
    <connection from=":J4_4" to="-E1.30" fromLane="0" toLane="0" dir="s" state="M"/>
    <connection from=":J4_5" to="-E0.42" fromLane="0" toLane="0" via=":J4_13_0" dir="l" state="m"/>
    <connection from=":J4_13" to="-E0.42" fromLane="0" toLane="0" dir="l" state="M"/>
    <connection from=":J4_6" to="E1.28" fromLane="0" toLane="0" dir="r" state="M"/>
    <connection from=":J4_7" to="E0.37" fromLane="0" toLane="0" dir="s" state="M"/>
    <connection from=":J4_8" to="-E1.30" fromLane="0" toLane="0" via=":J4_14_0" dir="l" state="m"/>
    <connection from=":J4_14" to="-E1.30" fromLane="0" toLane="0" dir="l" state="M"/>
    <connection from=":J4_9" to="-E0.42" fromLane="0" toLane="0" dir="r" state="M"/>
    <connection from=":J4_10" to="E1.28" fromLane="0" toLane="0" dir="s" state="M"/>
    <connection from=":J4_11" to="E0.37" fromLane="0" toLane="0" via=":J4_15_0" dir="l" state="m"/>
    <connection from=":J4_15" to="E0.37" fromLane="0" toLane="0" dir="l" state="M"/>

</net>
