<?xml version="1.0" encoding="UTF-8"?>

<!-- generated on 2025-03-20 10:09:55 by Eclipse SUMO netedit Version 1.22.0
<neteditConfiguration xmlns:xsi="http://www.w3.org/2001/XMLSchema-instance" xsi:noNamespaceSchemaLocation="http://sumo.dlr.de/xsd/neteditConfiguration.xsd">

    <input>
        <sumo-net-file value="C:\Users\lophi\Dev\TestSumo\try.net.xml"/>
    </input>

    <output>
        <output-file value="C:\Users\lophi\Dev\TestSumo\try.net.xml"/>
    </output>

    <processing>
        <offset.disable-normalization value="true"/>
    </processing>

    <junctions>
        <no-turnarounds value="true"/>
    </junctions>

    <netedit>
        <new-network value="false"/>
    </netedit>

</neteditConfiguration>
-->

<net version="1.20" junctionCornerDetail="5" limitTurnSpeed="5.50" xmlns:xsi="http://www.w3.org/2001/XMLSchema-instance" xsi:noNamespaceSchemaLocation="http://sumo.dlr.de/xsd/net_file.xsd">

    <location netOffset="0.00,0.00" convBoundary="-49.39,-18.97,14.34,26.40" origBoundary="10000000000.00,10000000000.00,-10000000000.00,-10000000000.00" projParameter="!"/>

    <edge id=":J3_0" function="internal">
        <lane id=":J3_0_0" index="0" speed="6.60" length="9.16" shape="-10.96,3.39 -13.42,3.74 -15.19,4.81 -16.28,6.59 -16.69,9.08"/>
    </edge>
    <edge id=":J3_1" function="internal">
        <lane id=":J3_1_0" index="0" speed="13.89" length="14.44" shape="-10.96,3.39 -25.40,3.37"/>
    </edge>
    <edge id=":J3_2" function="internal">
        <lane id=":J3_2_0" index="0" speed="8.03" length="4.05" shape="-10.96,3.39 -14.80,2.83 -14.95,2.74"/>
    </edge>
    <edge id=":J3_12" function="internal">
        <lane id=":J3_12_0" index="0" speed="8.03" length="10.15" shape="-14.95,2.74 -17.55,1.18 -19.21,-1.58 -19.79,-5.44"/>
    </edge>
    <edge id=":J3_3" function="internal">
        <lane id=":J3_3_0" index="0" speed="6.54" length="9.08" shape="-16.59,-5.46 -16.22,-2.99 -15.16,-1.23 -13.40,-0.17 -10.96,0.19"/>
    </edge>
    <edge id=":J3_4" function="internal">
        <lane id=":J3_4_0" index="0" speed="13.89" length="14.54" shape="-16.59,-5.46 -16.69,9.08"/>
    </edge>
    <edge id=":J3_5" function="internal">
        <lane id=":J3_5_0" index="0" speed="7.99" length="4.18" shape="-16.59,-5.46 -17.11,-1.59 -17.25,-1.36"/>
    </edge>
    <edge id=":J3_13" function="internal">
        <lane id=":J3_13_0" index="0" speed="7.99" length="10.08" shape="-17.25,-1.36 -18.75,1.17 -21.52,2.82 -25.40,3.37"/>
    </edge>
    <edge id=":J3_6" function="internal">
        <lane id=":J3_6_0" index="0" speed="6.50" length="9.06" shape="-25.39,0.17 -22.92,-0.18 -21.17,-1.23 -20.12,-2.98 -19.79,-5.44"/>
    </edge>
    <edge id=":J3_7" function="internal">
        <lane id=":J3_7_0" index="0" speed="13.89" length="14.44" shape="-25.39,0.17 -10.96,0.19"/>
    </edge>
    <edge id=":J3_8" function="internal">
        <lane id=":J3_8_0" index="0" speed="7.96" length="4.08" shape="-25.39,0.17 -21.51,0.73 -21.37,0.82"/>
    </edge>
    <edge id=":J3_14" function="internal">
        <lane id=":J3_14_0" index="0" speed="7.96" length="10.19" shape="-21.37,0.82 -18.77,2.40 -17.16,5.19 -16.69,9.08"/>
    </edge>
    <edge id=":J3_9" function="internal">
        <lane id=":J3_9_0" index="0" speed="6.46" length="9.03" shape="-19.89,9.01 -20.19,6.55 -21.20,4.78 -22.94,3.73 -25.40,3.37"/>
    </edge>
    <edge id=":J3_10" function="internal">
        <lane id=":J3_10_0" index="0" speed="13.89" length="14.45" shape="-19.89,9.01 -19.79,-5.44"/>
    </edge>
    <edge id=":J3_11" function="internal">
        <lane id=":J3_11_0" index="0" speed="8.08" length="3.91" shape="-19.89,9.01 -19.26,5.15"/>
    </edge>
    <edge id=":J3_15" function="internal">
        <lane id=":J3_15_0" index="0" speed="8.08" length="10.34" shape="-19.26,5.15 -17.56,2.39 -14.79,0.74 -10.96,0.19"/>
    </edge>

    <edge id="-E2" from="J6" to="J3" priority="-1">
        <lane id="-E2_0" index="0" speed="13.89" length="13.52" shape="-16.69,-18.98 -16.59,-5.46"/>
    </edge>
    <edge id="-E2.26" from="J3" to="J5" priority="-1">
        <lane id="-E2.26_0" index="0" speed="13.89" length="17.36" shape="-16.69,9.08 -17.06,26.43"/>
    </edge>
    <edge id="E0" from="J0" to="J3" priority="-1">
        <lane id="E0_0" index="0" speed="13.89" length="24.00" shape="-49.39,0.15 -25.39,0.17"/>
    </edge>
    <edge id="E0.29" from="J3" to="J1" priority="-1">
        <lane id="E0.29_0" index="0" speed="13.89" length="25.30" shape="-10.96,0.19 14.34,0.22"/>
    </edge>
    <edge id="E1" from="J1" to="J3" priority="-1">
        <lane id="E1_0" index="0" speed="13.89" length="25.30" shape="14.34,3.42 -10.96,3.39"/>
    </edge>
    <edge id="E1.25" from="J3" to="J0" priority="-1">
        <lane id="E1.25_0" index="0" speed="13.89" length="24.00" shape="-25.40,3.37 -49.39,3.35"/>
    </edge>
    <edge id="E2" from="J5" to="J3" priority="-1">
        <lane id="E2_0" index="0" speed="13.89" length="17.36" shape="-20.26,26.37 -19.89,9.01"/>
    </edge>
    <edge id="E2.27" from="J3" to="J6" priority="-1">
        <lane id="E2.27_0" index="0" speed="13.89" length="13.52" shape="-19.79,-5.44 -19.89,-18.96"/>
    </edge>

    <tlLogic id="J3" type="static" programID="0" offset="0">
        <phase duration="42" state="GGgrrrGGgrrr"/>
        <phase duration="3"  state="yyyrrryyyrrr"/>
        <phase duration="42" state="rrrGGgrrrGGg"/>
        <phase duration="3"  state="rrryyyrrryyy"/>
    </tlLogic>

    <junction id="J0" type="dead_end" x="-49.39" y="1.75" incLanes="E1.25_0" intLanes="" shape="-49.39,1.75 -49.40,4.95 -49.39,1.75"/>
    <junction id="J1" type="dead_end" x="14.34" y="1.82" incLanes="E0.29_0" intLanes="" shape="14.34,1.82 14.34,-1.38 14.34,1.82"/>
    <junction id="J3" type="traffic_light" x="-18.13" y="1.78" incLanes="E1_0 -E2_0 E0_0 E2_0" intLanes=":J3_0_0 :J3_1_0 :J3_12_0 :J3_3_0 :J3_4_0 :J3_13_0 :J3_6_0 :J3_7_0 :J3_14_0 :J3_9_0 :J3_10_0 :J3_15_0" shape="-10.96,4.99 -10.95,-1.41 -13.18,-1.86 -13.96,-2.43 -14.52,-3.22 -14.87,-4.23 -14.99,-5.47 -21.39,-5.42 -21.82,-3.20 -22.37,-2.42 -23.15,-1.87 -24.16,-1.54 -25.39,-1.43 -25.40,4.97 -23.19,5.42 -22.42,5.97 -21.88,6.75 -21.57,7.75 -21.49,8.98 -15.09,9.11 -14.59,6.82 -14.01,6.02 -13.21,5.45 -12.20,5.10">
        <request index="0"  response="000000000000" foes="000100010000" cont="0"/>
        <request index="1"  response="100000100000" foes="111100110000" cont="0"/>
        <request index="2"  response="100011100000" foes="110111110000" cont="1"/>
        <request index="3"  response="000010000000" foes="100010000000" cont="0"/>
        <request index="4"  response="000110000111" foes="100110000111" cont="0"/>
        <request index="5"  response="111110000110" foes="111110000110" cont="1"/>
        <request index="6"  response="000000000000" foes="010000000100" cont="0"/>
        <request index="7"  response="100000100000" foes="110000111100" cont="0"/>
        <request index="8"  response="100000100111" foes="110000110111" cont="1"/>
        <request index="9"  response="000000000010" foes="000000100010" cont="0"/>
        <request index="10" response="000111000110" foes="000111100110" cont="0"/>
        <request index="11" response="000110011110" foes="000110111110" cont="1"/>
    </junction>
    <junction id="J5" type="dead_end" x="-18.66" y="26.40" incLanes="-E2.26_0" intLanes="" shape="-18.66,26.40 -15.46,26.47 -18.66,26.40"/>
    <junction id="J6" type="dead_end" x="-18.29" y="-18.97" incLanes="E2.27_0" intLanes="" shape="-18.29,-18.97 -21.49,-18.95 -18.29,-18.97"/>

    <junction id=":J3_12_0" type="internal" x="-14.95" y="2.74" incLanes=":J3_2_0 E0_0" intLanes=":J3_4_0 :J3_5_0 :J3_6_0 :J3_7_0 :J3_10_0 :J3_11_0"/>
    <junction id=":J3_13_0" type="internal" x="-17.25" y="-1.36" incLanes=":J3_5_0 E2_0" intLanes=":J3_1_0 :J3_2_0 :J3_7_0 :J3_8_0 :J3_9_0 :J3_10_0"/>
    <junction id=":J3_14_0" type="internal" x="-21.37" y="0.82" incLanes=":J3_8_0 E1_0" intLanes=":J3_0_0 :J3_1_0 :J3_4_0 :J3_5_0 :J3_10_0 :J3_11_0"/>
    <junction id=":J3_15_0" type="internal" x="-19.26" y="5.15" incLanes=":J3_11_0 -E2_0" intLanes=":J3_1_0 :J3_2_0 :J3_3_0 :J3_4_0 :J3_7_0 :J3_8_0"/>

    <connection from="-E2" to="E0.29" fromLane="0" toLane="0" via=":J3_3_0" tl="J3" linkIndex="3" dir="r" state="o"/>
    <connection from="-E2" to="-E2.26" fromLane="0" toLane="0" via=":J3_4_0" tl="J3" linkIndex="4" dir="s" state="o"/>
    <connection from="-E2" to="E1.25" fromLane="0" toLane="0" via=":J3_5_0" tl="J3" linkIndex="5" dir="l" state="o"/>
    <connection from="E0" to="E2.27" fromLane="0" toLane="0" via=":J3_6_0" tl="J3" linkIndex="6" dir="r" state="O"/>
    <connection from="E0" to="E0.29" fromLane="0" toLane="0" via=":J3_7_0" tl="J3" linkIndex="7" dir="s" state="O"/>
    <connection from="E0" to="-E2.26" fromLane="0" toLane="0" via=":J3_8_0" tl="J3" linkIndex="8" dir="l" state="o"/>
    <connection from="E1" to="-E2.26" fromLane="0" toLane="0" via=":J3_0_0" tl="J3" linkIndex="0" dir="r" state="O"/>
    <connection from="E1" to="E1.25" fromLane="0" toLane="0" via=":J3_1_0" tl="J3" linkIndex="1" dir="s" state="O"/>
    <connection from="E1" to="E2.27" fromLane="0" toLane="0" via=":J3_2_0" tl="J3" linkIndex="2" dir="l" state="o"/>
    <connection from="E2" to="E1.25" fromLane="0" toLane="0" via=":J3_9_0" tl="J3" linkIndex="9" dir="r" state="o"/>
    <connection from="E2" to="E2.27" fromLane="0" toLane="0" via=":J3_10_0" tl="J3" linkIndex="10" dir="s" state="o"/>
    <connection from="E2" to="E0.29" fromLane="0" toLane="0" via=":J3_11_0" tl="J3" linkIndex="11" dir="l" state="o"/>

    <connection from=":J3_0" to="-E2.26" fromLane="0" toLane="0" dir="r" state="M"/>
    <connection from=":J3_1" to="E1.25" fromLane="0" toLane="0" dir="s" state="M"/>
    <connection from=":J3_2" to="E2.27" fromLane="0" toLane="0" via=":J3_12_0" dir="l" state="m"/>
    <connection from=":J3_12" to="E2.27" fromLane="0" toLane="0" dir="l" state="M"/>
    <connection from=":J3_3" to="E0.29" fromLane="0" toLane="0" dir="r" state="M"/>
    <connection from=":J3_4" to="-E2.26" fromLane="0" toLane="0" dir="s" state="M"/>
    <connection from=":J3_5" to="E1.25" fromLane="0" toLane="0" via=":J3_13_0" dir="l" state="m"/>
    <connection from=":J3_13" to="E1.25" fromLane="0" toLane="0" dir="l" state="M"/>
    <connection from=":J3_6" to="E2.27" fromLane="0" toLane="0" dir="r" state="M"/>
    <connection from=":J3_7" to="E0.29" fromLane="0" toLane="0" dir="s" state="M"/>
    <connection from=":J3_8" to="-E2.26" fromLane="0" toLane="0" via=":J3_14_0" dir="l" state="m"/>
    <connection from=":J3_14" to="-E2.26" fromLane="0" toLane="0" dir="l" state="M"/>
    <connection from=":J3_9" to="E1.25" fromLane="0" toLane="0" dir="r" state="M"/>
    <connection from=":J3_10" to="E2.27" fromLane="0" toLane="0" dir="s" state="M"/>
    <connection from=":J3_11" to="E0.29" fromLane="0" toLane="0" via=":J3_15_0" dir="l" state="m"/>
    <connection from=":J3_15" to="E0.29" fromLane="0" toLane="0" dir="l" state="M"/>

</net>
